
**** 01/08/24 21:07:06 ********* PSpice 9.2 (Mar 2000) ******** ID# 1 ********

 ** Profile: "SCHEMATIC1-switch_sim"  [ D:\Thesis\pspice\test-SCHEMATIC1-switch_sim.sim ] 


 ****     CIRCUIT DESCRIPTION


******************************************************************************




** Creating circuit file "test-SCHEMATIC1-switch_sim.sim.cir" 
** WARNING: THIS AUTOMATICALLY GENERATED FILE MAY BE OVERWRITTEN BY SUBSEQUENT SIMULATIONS

*Libraries: 
* Local Libraries :
* From [PSPICE NETLIST] section of C:\Program Files\Orcad\PSpice\PSpice.ini file:
.lib "nom.lib" 

*Analysis directives: 
.TRAN  0 1 0 1e-3 
.PROBE V(*) I(*) W(*) D(*) NOISE(*) 
.INC ".\test-SCHEMATIC1.net" 



**** INCLUDING test-SCHEMATIC1.net ****
* source TEST
V_V5         N00577 0 DC 10 AC 0 0.5
V_V4         N00577 0 DC 10 AC 0 1

**** RESUMING test-SCHEMATIC1-switch_sim.sim.cir ****
.END

ERROR -- Voltage source and/or inductor loop involving V_V4
You may break the loop by adding a series resistance